<routes>
    <vType accel="3.0" decel="1.0" id="Car" length="4.0" maxSpeed="3" sigma="0.0" />
	
    <route id="route_ns" edges="N-X X-S"/>
    <route id="route_nw" edges="N-X X-W"/>
    <route id="route_ne" edges="N-X X-E"/>
	
    <route id="route_ew" edges="E-X X-W"/>
    <route id="route_en" edges="E-X X-N"/>
    <route id="route_es" edges="E-X X-S"/>
	
    <route id="route_sn" edges="S-X X-N"/>
    <route id="route_se" edges="S-X X-E"/>
    <route id="route_sw" edges="S-X X-W"/>
	
	<route id="route_we" edges="W-X X-E"/>
    <route id="route_ws" edges="W-X X-S"/>
    <route id="route_wn" edges="W-X X-N"/>
	
    <flow depart="1" id="flow_n_s" route="route_ns" type="Car" begin="0" end="100000" probability="0.019055685506977622" />
    <flow depart="1" id="flow_n_w" route="route_nw" type="Car" begin="0" end="100000" probability="0.007324584062036154" />
    <flow depart="1" id="flow_n_e" route="route_ne" type="Car" begin="0" end="100000" probability="0.005997726435193849" />
	
    <flow depart="1" id="flow_e_w" route="route_ew" type="Car" begin="0" end="100000" probability="0.02270360673030759" />
    <flow depart="1" id="flow_e_n" route="route_en" type="Car" begin="0" end="100000" probability="0.018862038491373835" />
    <flow depart="1" id="flow_e_s" route="route_es" type="Car" begin="0" end="100000" probability="0.008610811198075052" />
	
    <flow depart="1" id="flow_s_n" route="route_sn" type="Car" begin="0" end="100000" probability="0.01468389252045076" />
    <flow depart="1" id="flow_s_e" route="route_se" type="Car" begin="0" end="100000" probability="0.008328922635354764" />
    <flow depart="1" id="flow_s_w" route="route_sw" type="Car" begin="0" end="100000" probability="0.013050200122622202" />
	
    <flow depart="1" id="flow_w_e" route="route_we" type="Car" begin="0" end="100000" probability="0.07384662823157892" />
    <flow depart="1" id="flow_w_s" route="route_ws" type="Car" begin="0" end="100000" probability="0.03178069108769035" />
    <flow depart="1" id="flow_w_n" route="route_wn" type="Car" begin="0" end="100000" probability="0.0330158323023533" />
	
	
	<personFlow id="person_N" begin="0" end="100000" probability="0.007589967939280533">
       <walk from="N-X" to="X-S" speed="1" arrivalPos="-1"/>
	   <walk from="N-X" to="X-W" speed="1" arrivalPos="-1"/>
	   <walk from="N-X" to="X-E" speed="1" arrivalPos="-1"/>
    </personFlow>
	
	<personFlow id="person_E" begin="0" end="100000" probability="0.006592749386472952">
	   <walk from="E-X" to="X-S" speed="1" arrivalPos="-1"/>
	   <walk from="E-X" to="X-W" speed="1" arrivalPos="-1"/>
	   <walk from="E-X" to="X-N" speed="1" arrivalPos="-1"/>
    </personFlow>
	
	<personFlow id="person_S" begin="0" end="100000" probability="0.008216006488683748">
	   <walk from="S-X" to="X-N" speed="1" arrivalPos="-1"/>
	   <walk from="S-X" to="X-W" speed="1" arrivalPos="-1"/>
	   <walk from="S-X" to="X-E" speed="1" arrivalPos="-1"/>
    </personFlow>
	
	<personFlow id="person_W" begin="0" end="100000" probability="0.018912134471420906">
	   <walk from="W-X" to="X-S" speed="1" arrivalPos="-1"/>
	   <walk from="W-X" to="X-N" speed="1" arrivalPos="-1"/>
	   <walk from="W-X" to="X-E" speed="1" arrivalPos="-1"/>
    </personFlow>
</routes>
